! RIJCOSX D3BJ B3LYP def2-TZVP(-f) def2-TZVP/C def2/J TIGHTSCF Grid5 FINALGrid6
! TightOpt

%method
        IntaccX 3.34,4.01,4.67 # =GridX4, try 4.01,4.01,4.34 for large/diffuse basis sets
        GridX 1,1,3 # =GridX4, default GridXS2 1,1,2
FrozenCore FC_ELECTRONS
D3S6 0.5
D3A1 0.0
D3S8 0.2130
D3A2 6.0519
ScalHFX = 0.70
ScalDFX = 0.30
ScalGGAC = 0.56
ScalLDAC = 0.56
ScalMP2C = 1.0
end
%mp2 
RI on
DoSCS true
Ps 0.46
Pt 0.40
MaxCore 1000
end

%MaxCore 4400
%pal nprocs=6
end

* xyz 0 1
*
